LTspice 24.1.10 for Windows
Circuit: C:\Users\Utente\Desktop\G-05\Physics_lab\Lab-2\LTSPICE\Plots\ShaperVOUT (in Frequenza)\Shaper_AnFreq2.net
Start Time: Tue Nov 11 12:14:42 2025
solver = Normal
Maximum thread count: 4
tnom = 27
temp = 27
method = trap
Direct Newton iteration for .op point succeeded.
Total elapsed time: 1.189 seconds.

Files loaded:
C:\Users\Utente\Desktop\G-05\Physics_lab\Lab-2\LTSPICE\Plots\ShaperVOUT (in Frequenza)\Shaper_AnFreq2.net
C:\Users\Utente\AppData\Local\LTspice\lib\sub\ADI.lib

